28
 
C -0.29377354 1.26470831 1.17815989
C 0.29377354 -1.26470831 -1.17815989
C 1.26019040 1.10133899 -0.90710391
C -1.26019040 -1.10133899 0.90710391
H 0.29655816 0.70620693 1.90114519
H -0.29655816 -0.70620693 -1.90114519
H -0.79286200 2.08967506 1.67777532
H 0.79286200 -2.08967506 -1.67777532
H 2.27834588 1.46771527 -0.98267778
H -2.27834588 -1.46771527 0.98267778
H 0.76115658 1.26163160 -1.86147714
H -0.76115658 -1.26163160 1.86147714
N 0.61177006 3.24149088 0.04572810
N -0.61177006 -3.24149088 -0.04572810
N 0.56295617 1.85953447 0.16090677
N -0.56295617 -1.85953447 -0.16090677
N -1.26162852 0.31691717 0.61670876
N 1.26162852 -0.31691717 -0.61670876
N -2.33870672 0.84015927 -0.11762448
N 2.33870672 -0.84015927 0.11762448
O 0.08670206 3.94162539 0.95558364
O -0.08670206 -3.94162539 -0.95558364
O 1.21786632 3.68545730 -0.97795585
O -1.21786632 -3.68545730 0.97795585
O -3.15567712 0.01281529 -0.61161864
O 3.15567712 -0.01281529 0.61161864
O -2.37587873 2.09531125 -0.24261276
O 2.37587873 -2.09531125 0.24261276
